$
$ ============================================================
$ 테스트용 OptiStruct .fem 파일
$ 단순지지 평판 (1000mm x 400mm x 1mm, 강재)
$ ============================================================
$
BEGIN BULK
$
$ --- 재료 정의 (강재) ---
$ MAT1, MID, E, G, NU, RHO
MAT1,   1,  210000.0,,  0.3,  7.85E-9
$
$ --- 쉘 물성 ---
$ PSHELL, PID, MID1, T
PSHELL, 1,    1,    1.0
$
$ --- 노드 정의 (3x3 단순화 메쉬) ---
GRID,   1,, 0.0,   0.0,   0.0
GRID,   2,, 500.0, 0.0,   0.0
GRID,   3,, 1000.0,0.0,   0.0
GRID,   4,, 0.0,   200.0, 0.0
GRID,   5,, 500.0, 200.0, 0.0
GRID,   6,, 1000.0,200.0, 0.0
GRID,   7,, 0.0,   400.0, 0.0
GRID,   8,, 500.0, 400.0, 0.0
GRID,   9,, 1000.0,400.0, 0.0
$
$ --- CQUAD4 요소 ---
CQUAD4, 1,  1,  1,  2,  5,  4
CQUAD4, 2,  1,  2,  3,  6,  5
CQUAD4, 3,  1,  4,  5,  8,  7
CQUAD4, 4,  1,  5,  6,  9,  8
$
$ --- 경계조건 (단순지지: 모든 외곽 노드에 w=0) ---
SPC1,   1,  3,  1,2,3,4,6,7,8,9
$
$ --- 고유값 해석 (10 모드) ---
EIGRL,  1, , , 10
$
ENDDATA
